first line here
second line. modify
third line another br modiy


new line.
